*Heading
** Job name: Job-1 Model name: Model-1
** Generated by: Abaqus/CAE 2020
*Preprint, echo=NO, model=NO, history=NO, contact=NO
**
** PARTS
**
*Part, name=DCB
*Node
      1,           0.,           0.,        2000.
      2,   10.6066017,   4.39339828,        2000.
      3,   10.6066017,   4.39339828,           0.
      4,           0.,           0.,           0.
      5,   21.2132034,   8.78679657,        2000.
      6,   21.2132034,   8.78679657,           0.
      7,   30.8132038,   8.78679657,        2000.
      8,   30.8132038,   8.78679657,           0.
      9,   41.4198036,   4.39339828,        2000.
     10,   41.4198036,   4.39339828,           0.
     11,   52.0264053,           0.,        2000.
     12,   52.0264053,           0.,           0.
     13,   41.4198036,  -4.39339828,        2000.
     14,   41.4198036,  -4.39339828,           0.
     15,   30.8132038,  -8.78679657,        2000.
     16,   30.8132038,  -8.78679657,           0.
     17,   21.2132034,  -8.78679657,        2000.
     18,   21.2132034,  -8.78679657,           0.
     19,   10.6066017,  -4.39339828,        2000.
     20,   10.6066017,  -4.39339828,           0.
** ... 37158 like lines cut
*Element, type=S4R
   1,     1,    25,  7785,  1310
   2,    25,    26,  7786,  7785
   3,    26,    27,  7787,  7786
   4,    27,    28,  7788,  7787
   5,    28,     2,    29,  7788
   6,  1310,  7785,  7789,  1309
   7,  7785,  7786,  7790,  7789
   8,  7786,  7787,  7791,  7790
   9,  7787,  7788,  7792,  7791
  10,  7788,    29,    30,  7792
  11,  1309,  7789,  7793,  1308
  12,  7789,  7790,  7794,  7793
  13,  7790,  7791,  7795,  7794
  14,  7791,  7792,  7796,  7795
  15,  7792,    30,    31,  7796
  16,  1308,  7793,  7797,  1307
  17,  7793,  7794,  7798,  7797
  18,  7794,  7795,  7799,  7798
  19,  7795,  7796,  7800,  7799
  20,  7796,    31,    32,  7800
** ... 37100 like lines cut
*Nset, nset=_PickedSet2, internal
     1,     2,     3,     4,     5,     6,     7,     8,     9,    10,    11,    12,    13,    14,    15,    16
    17,    18,    19,    20,    25,    26,    27,    28,    29,    30,    31,    32,    33,    34,    35,    36
    37,    38,    39,    40,    41,    42,    43,    44,    45,    46,    47,    48,    49,    50,    51,    52
    53,    54,    55,    56,    57,    58,    59,    60,    61,    62,    63,    64,    65,    66,    67,    68
    69,    70,    71,    72,    73,    74,    75,    76,    77,    78,    79,    80,    81,    82,    83,    84
    85,    86,    87,    88,    89,    90,    91,    92,    93,    94,    95,    96,    97,    98,    99,   100
   101,   102,   103,   104,   105,   106,   107,   108,   109,   110,   111,   112,   113,   114,   115,   116
   117,   118,   119,   120,   121,   122,   123,   124,   125,   126,   127,   128,   129,   130,   131,   132
   133,   134,   135,   136,   137,   138,   139,   140,   141,   142,   143,   144,   145,   146,   147,   148
   149,   150,   151,   152,   153,   154,   155,   156,   157,   158,   159,   160,   161,   162,   163,   164
   165,   166,   167,   168,   169,   170,   171,   172,   173,   174,   175,   176,   177,   178,   179,   180
   181,   182,   183,   184,   185,   186,   187,   188,   189,   190,   191,   192,   193,   194,   195,   196
   197,   198,   199,   200,   201,   202,   203,   204,   205,   206,   207,   208,   209,   210,   211,   212
   213,   214,   215,   216,   217,   218,   219,   220,   221,   222,   223,   224,   225,   226,   227,   228
   229,   230,   231,   232,   233,   234,   235,   236,   237,   238,   239,   240,   241,   242,   243,   244
   245,   246,   247,   248,   249,   250,   251,   252,   253,   254,   255,   256,   257,   258,   259,   260
   261,   262,   263,   264,   265,   266,   267,   268,   269,   270,   271,   272,   273,   274,   275,   276
   277,   278,   279,   280,   281,   282,   283,   284,   285,   286,   287,   288,   289,   290,   291,   292
   293,   294,   295,   296,   297,   298,   299,   300,   301,   302,   303,   304,   305,   306,   307,   308
   309,   310,   311,   312,   313,   314,   315,   316,   317,   318,   319,   320,   321,   322,   323,   324
** ... 1903 like lines cut
*Elset, elset=_PickedSet2, internal, generate
     1,  30720,      1
*Nset, nset=_PickedSet3, internal
     1,     4,    11,    12,    21,    22,    23,    24,   672,   673,   674,   675,   676,   677,   678,   679
   680,   681,   682,   683,   684,   685,   686,   687,   688,   689,   690,   691,   692,   693,   694,   695
   696,   697,   698,   699,   700,   701,   702,   703,   704,   705,   706,   707,   708,   709,   710,   711
   712,   713,   714,   715,   716,   717,   718,   719,   720,   721,   722,   723,   724,   725,   726,   727
   728,   729,   730,   731,   732,   733,   734,   735,   736,   737,   738,   739,   740,   741,   742,   743
   744,   745,   746,   747,   748,   749,   750,   751,   752,   753,   754,   755,   756,   757,   758,   759
   760,   761,   762,   763,   764,   765,   766,   767,   768,   769,   770,   771,   772,   773,   774,   775
   776,   777,   778,   779,   780,   781,   782,   783,   784,   785,   786,   787,   788,   789,   790,   791
   792,   793,   794,   795,   796,   797,   798,   799,   800,   801,   802,   803,   804,   805,   806,   807
   808,   809,   810,   811,   812,   813,   814,   815,   816,   817,   818,   819,   820,   821,   822,   823
   824,   825,   826,   827,   828,   829,   830,   831,   832,   833,   834,   835,   836,   837,   838,   839
   840,   841,   842,   843,   844,   845,   846,   847,   848,   849,   850,   851,   852,   853,   854,   855
   856,   857,   858,   859,   860,   861,   862,   863,   864,   865,   866,   867,   868,   869,   870,   871
   872,   873,   874,   875,   876,   877,   878,   879,   880,   881,   882,   883,   884,   885,   886,   887
   888,   889,   890,   891,   892,   893,   894,   895,   896,   897,   898,   899,   900,   901,   902,   903
   904,   905,   906,   907,   908,   909,   910,   911,   912,   913,   914,   915,   916,   917,   918,   919
   920,   921,   922,   923,   924,   925,   926,   927,   928,   929,   930,   931,   932,   933,   934,   935
   936,   937,   938,   939,   940,   941,   942,   943,   944,   945,   946,   947,   948,   949,   950,   951
   952,   953,   954,   955,   956,   957,   958,   959,   960,   961,   962,   963,   964,   965,   966,   967
   968,   969,   970,   971,   972,   973,   974,   975,   976,   977,   978,   979,   980,   981,   982,   983
** ... 461 like lines cut
*Elset, elset=_PickedSet3, internal, generate
 30721,  37120,      1
*Orientation, name=Ori-2
1., 0., 0., 0., 1., 0.
2, 0.
** Section: Section-1
*Shell Section, elset=_PickedSet2, composite, orientation=Ori-2
0.04, 3, Material-1, 0., 1
0.04, 3, Material-1, 0., 2
0.04, 3, Material-1, 90., 3
0.04, 3, Material-1, 90., 4
0.04, 3, Material-1, 0., 5
0.04, 3, Material-1, 0., 6
*Orientation, name=Ori-1
1., 0., 0., 0., 1., 0.
2, 0.
** Section: Section-2
*Shell Section, elset=_PickedSet3, composite, orientation=Ori-1, symmetric
0.04, 3, Material-1, 0., 1
0.04, 3, Material-1, 0., 2
0.04, 3, Material-1, 90., 3
0.04, 3, Material-1, 90., 4
0.04, 3, Material-1, 0., 5
0.04, 3, Material-1, 0., 6
*End Part
**  
*Part, name=plate1
*Node
      1,          70.,          10.,         140.
      2,          60.,           0.,         140.
      3,          60.,           0.,           0.
      4,          70.,          10.,           0.
      5,           0.,           0.,         140.
      6,           0.,           0.,           0.
      7,   68.6602554,           5.,         140.
      8,          65.,     1.339746,         140.
      9,          60.,           0.,         135.
     10,          60.,           0.,         130.
     11,          60.,           0.,         125.
     12,          60.,           0.,         120.
     13,          60.,           0.,         115.
     14,          60.,           0.,         110.
     15,          60.,           0.,         105.
     16,          60.,           0.,         100.
     17,          60.,           0.,          95.
     18,          60.,           0.,          90.
     19,          60.,           0.,          85.
     20,          60.,           0.,          80.
** ... 444 like lines cut
*Element, type=R3D4
 1,   1,   7, 114,  64
 2,   7,   8, 115, 114
 3,   8,   2,   9, 115
 4,  64, 114, 116,  63
 5, 114, 115, 117, 116
 6, 115,   9,  10, 117
 7,  63, 116, 118,  62
 8, 116, 117, 119, 118
 9, 117,  10,  11, 119
10,  62, 118, 120,  61
11, 118, 119, 121, 120
12, 119,  11,  12, 121
13,  61, 120, 122,  60
14, 120, 121, 123, 122
15, 121,  12,  13, 123
16,  60, 122, 124,  59
17, 122, 123, 125, 124
18, 123,  13,  14, 125
19,  59, 124, 126,  58
20, 124, 125, 127, 126
** ... 400 like lines cut
*Node
    465,          30.,           0.,         140.
*Nset, nset=plate1-RefPt_, internal
465, 
*Elset, elset=plate1, generate
   1,  420,    1
*End Part
**  
*Part, name=plate2
*Node
      1,          70.,         -10.,         140.
      2,          60.,           0.,         140.
      3,          60.,           0.,           0.
      4,          70.,         -10.,           0.
      5,           0.,           0.,         140.
      6,           0.,           0.,           0.
      7,   68.6602554,          -5.,         140.
      8,          65.,    -1.339746,         140.
      9,          60.,           0.,         135.
     10,          60.,           0.,         130.
     11,          60.,           0.,         125.
     12,          60.,           0.,         120.
     13,          60.,           0.,         115.
     14,          60.,           0.,         110.
     15,          60.,           0.,         105.
     16,          60.,           0.,         100.
     17,          60.,           0.,          95.
     18,          60.,           0.,          90.
     19,          60.,           0.,          85.
     20,          60.,           0.,          80.
** ... 444 like lines cut
*Element, type=R3D4
 1,   1,   7, 114,  64
 2,   7,   8, 115, 114
 3,   8,   2,   9, 115
 4,  64, 114, 116,  63
 5, 114, 115, 117, 116
 6, 115,   9,  10, 117
 7,  63, 116, 118,  62
 8, 116, 117, 119, 118
 9, 117,  10,  11, 119
10,  62, 118, 120,  61
11, 118, 119, 121, 120
12, 119,  11,  12, 121
13,  61, 120, 122,  60
14, 120, 121, 123, 122
15, 121,  12,  13, 123
16,  60, 122, 124,  59
17, 122, 123, 125, 124
18, 123,  13,  14, 125
19,  59, 124, 126,  58
20, 124, 125, 127, 126
** ... 400 like lines cut
*Node
    465,          30.,           0.,         140.
*Nset, nset=plate2-RefPt_, internal
465, 
*Elset, elset=plate2, generate
   1,  420,    1
*End Part
**  
*Part, name=plate3
*Node
      1,          10.,           0.,         140.
      2,           5.,           0.,         140.
      3,           0.,           0.,         140.
      4,          -5.,           0.,         140.
      5,         -10.,           0.,         140.
      6,          10.,           0.,         135.
      7,           5.,           0.,         135.
      8,           0.,           0.,         135.
      9,          -5.,           0.,         135.
     10,         -10.,           0.,         135.
     11,          10.,           0.,         130.
     12,           5.,           0.,         130.
     13,           0.,           0.,         130.
     14,          -5.,           0.,         130.
     15,         -10.,           0.,         130.
     16,          10.,           0.,         125.
     17,           5.,           0.,         125.
     18,           0.,           0.,         125.
     19,          -5.,           0.,         125.
     20,         -10.,           0.,         125.
** ... 125 like lines cut
*Element, type=R3D4
  1,   1,   2,   7,   6
  2,   2,   3,   8,   7
  3,   3,   4,   9,   8
  4,   4,   5,  10,   9
  5,   6,   7,  12,  11
  6,   7,   8,  13,  12
  7,   8,   9,  14,  13
  8,   9,  10,  15,  14
  9,  11,  12,  17,  16
 10,  12,  13,  18,  17
 11,  13,  14,  19,  18
 12,  14,  15,  20,  19
 13,  16,  17,  22,  21
 14,  17,  18,  23,  22
 15,  18,  19,  24,  23
 16,  19,  20,  25,  24
 17,  21,  22,  27,  26
 18,  22,  23,  28,  27
 19,  23,  24,  29,  28
 20,  24,  25,  30,  29
** ... 92 like lines cut
*Node
    146,           0.,  -200.800003,         140.
*Nset, nset=plate3-RefPt_, internal
146, 
*Elset, elset=plate3, generate
   1,  112,    1
*End Part
**  
*Part, name=roller
*Node
      1,   199.751389,  -9.96917725,         140.
      2,   199.006149,  -19.9135685,         140.
      3,   197.766159,  -29.8084526,         140.
      4,     196.0345,  -39.6292305,         140.
      5,    193.81546,  -49.3514786,         140.
      6,   191.114563,  -58.9510345,         140.
      7,   187.938522,  -68.4040298,         140.
      8,   184.295242,  -77.6869583,         140.
      9,   180.193771,  -86.7767487,         140.
     10,   175.644318,   -95.650795,         140.
     11,   170.658173,  -104.287041,         140.
     12,   165.247757,  -112.664009,         140.
     13,   159.426498,   -120.76088,         140.
     14,   153.208893,  -128.557526,         140.
     15,   146.610367,  -136.034546,         140.
     16,   139.647369,   -143.17337,         140.
     17,   132.337173,  -149.956238,         140.
     18,    124.69796,  -156.366302,         140.
     19,   116.748734,  -162.387604,         140.
     20,   108.509254,  -168.005188,         140.
** ... 1870 like lines cut
*Element, type=R3D4
   1,  126,    1,  127,  252
   2,    1,    2,  128,  127
   3,    2,    3,  129,  128
   4,    3,    4,  130,  129
   5,    4,    5,  131,  130
   6,    5,    6,  132,  131
   7,    6,    7,  133,  132
   8,    7,    8,  134,  133
   9,    8,    9,  135,  134
  10,    9,   10,  136,  135
  11,   10,   11,  137,  136
  12,   11,   12,  138,  137
  13,   12,   13,  139,  138
  14,   13,   14,  140,  139
  15,   14,   15,  141,  140
  16,   15,   16,  142,  141
  17,   16,   17,  143,  142
  18,   17,   18,  144,  143
  19,   18,   19,  145,  144
  20,   19,   20,  146,  145
** ... 1744 like lines cut
*Node
   1891,           0., -1.22464676e-14,         140.
*Nset, nset=roller-RefPt_, internal
1891, 
*Elset, elset=roller, generate
    1,  1764,     1
*End Part
**  
*Part, name=shaft
*Node
      1,    9.5949297,  -2.81732559,         140.
      2,   8.41253567,  -5.40640831,         140.
      3,   6.54860735,  -7.55749559,         140.
      4,   4.15415001,  -9.09632015,         140.
      5,   1.42314839,  -9.89821434,         140.
      6,  -1.42314839,  -9.89821434,         140.
      7,  -4.15415001,  -9.09632015,         140.
      8,  -6.54860735,  -7.55749559,         140.
      9,  -8.41253567,  -5.40640831,         140.
     10,   -9.5949297,  -2.81732559,         140.
     11,         -10.,           0.,         140.
     12,   -9.5949297,   2.81732559,         140.
     13,  -8.41253567,   5.40640831,         140.
     14,  -6.54860735,   7.55749559,         140.
     15,  -4.15415001,   9.09632015,         140.
     16,  -1.42314839,   9.89821434,         140.
     17,   1.42314839,   9.89821434,         140.
     18,   4.15415001,   9.09632015,         140.
     19,   6.54860735,   7.55749559,         140.
     20,   8.41253567,   5.40640831,         140.
** ... 1080 like lines cut
*Element, type=R3D4
   1,   22,    1,   23,   44
   2,    1,    2,   24,   23
   3,    2,    3,   25,   24
   4,    3,    4,   26,   25
   5,    4,    5,   27,   26
   6,    5,    6,   28,   27
   7,    6,    7,   29,   28
   8,    7,    8,   30,   29
   9,    8,    9,   31,   30
  10,    9,   10,   32,   31
  11,   10,   11,   33,   32
  12,   11,   12,   34,   33
  13,   12,   13,   35,   34
  14,   13,   14,   36,   35
  15,   14,   15,   37,   36
  16,   15,   16,   38,   37
  17,   16,   17,   39,   38
  18,   17,   18,   40,   39
  19,   18,   19,   41,   40
  20,   19,   20,   42,   41
** ... 1058 like lines cut
*Node
   1101,           0., -6.123234e-16,         140.
*Nset, nset=shaft-RefPt_, internal
1101, 
*Elset, elset=shaft, generate
    1,  1078,     1
*End Part
**  
**
** ASSEMBLY
**
*Assembly, name=Assembly
**  
*Instance, name=roller-1, part=roller
*End Instance
**  
*Instance, name=plate3-1, part=plate3
          0.,        200.8,           0.
*End Instance
**  
*Instance, name=DCB-1, part=DCB
        -10.,        200.4,          95.
        -10.,        200.4,          95.,         -10., 201.400000012688,          95., 89.9999992730282
*End Instance
**  
*Instance, name=plate1-1, part=plate1
        -10.,        209.4,           0.
*End Instance
**  
*Instance, name=plate2-1, part=plate2
        -10.,        191.4,           0.
*End Instance
**  
*Instance, name=shaft-1, part=shaft
          0.,        213.5,           0.
*End Instance
**  
*Instance, name=shaft-1-rad-2, part=shaft
     -106.75, 184.896423707978,           0.
     -106.75, 184.896423707978,           0.,      -106.75, 184.896423707978, 0.999999991937338, 30.00000047109
*End Instance
**  
*Instance, name=shaft-1-rad-3, part=shaft
-184.896423707978,       106.75,           0.
-184.896423707978,       106.75,           0., -184.896423707978,       106.75,           1., 60.0000008905841
*End Instance
**  
*Instance, name=shaft-1-rad-4, part=shaft
      -213.5, 1.3073104580898e-14,           0.
      -213.5, 1.3073104580898e-14,           0.,       -213.5, 1.3073104580898e-14, 1.00000001268805, 89.9999992730282
*End Instance
**  
*Instance, name=shaft-1-rad-5, part=shaft
-184.896423707978,      -106.75,           0.
-184.896423707978,      -106.75,           0., -184.896423707978,      -106.75, 0.999999982051769,         120.
*End Instance
**  
*Instance, name=shaft-1-rad-6, part=shaft
     -106.75, -184.896423707978,           0.
     -106.75, -184.896423707978,           0.,      -106.75, -184.896423707978, 1.00000000608948, 149.999999585438
*End Instance
**  
*Instance, name=shaft-1-rad-7, part=shaft
-2.6146209161796e-14,       -213.5,           0.
-2.6146209161796e-14,       -213.5,           0., -2.6146209161796e-14,       -213.5,           1.,         180.
*End Instance
**  
*Instance, name=shaft-1-rad-8, part=shaft
      106.75, -184.896423707978,           0.
      106.75, -184.896423707978,           0.,       106.75, -184.896423707978, 1.00000000608948, 210.000000414563
*End Instance
**  
*Instance, name=shaft-1-rad-9, part=shaft
184.896423707978,      -106.75,           0.
184.896423707978,      -106.75,           0., 184.896423707978,      -106.75, 0.999999982051769,         240.
*End Instance
**  
*Instance, name=shaft-1-rad-10, part=shaft
       213.5, -3.9219313742694e-14,           0.
       213.5, -3.9219313742694e-14,           0.,        213.5, -3.9219313742694e-14, -1.00000001268805, 89.9999992730282
*End Instance
**  
*Instance, name=shaft-1-rad-11, part=shaft
184.896423707978,       106.75,           0.
184.896423707978,       106.75,           0., 184.896423707978,       106.75,          -1., 60.0000008905841
*End Instance
**  
*Instance, name=shaft-1-rad-12, part=shaft
      106.75, 184.896423707978,           0.
      106.75, 184.896423707978,           0.,       106.75, 184.896423707978, -0.999999991937338, 30.00000047109
*End Instance
**  
*Nset, nset=Set-7, instance=shaft-1
 1101,
*Nset, nset=Set-7, instance=shaft-1-rad-2
 1101,
*Nset, nset=Set-7, instance=shaft-1-rad-3
 1101,
*Nset, nset=Set-7, instance=shaft-1-rad-5
 1101,
*Nset, nset=Set-7, instance=shaft-1-rad-9
 1101,
*Nset, nset=Set-7, instance=shaft-1-rad-7
 1101,
*Nset, nset=Set-7, instance=shaft-1-rad-11
 1101,
*Nset, nset=Set-7, instance=shaft-1-rad-4
 1101,
*Nset, nset=Set-7, instance=shaft-1-rad-6
 1101,
*Nset, nset=Set-7, instance=shaft-1-rad-10
 1101,
*Nset, nset=Set-7, instance=shaft-1-rad-8
 1101,
*Nset, nset=Set-7, instance=shaft-1-rad-12
 1101,
*Nset, nset=Set-8, instance=DCB-1, generate
     1,  37178,      1
*Elset, elset=Set-8, instance=DCB-1, generate
     1,  37120,      1
*Nset, nset=_PickedSet51, internal, instance=DCB-1
 21, 23
*Nset, nset=_PickedSet52, internal, instance=plate1-1
 465,
*Nset, nset=_PickedSet53, internal, instance=plate2-1
 465,
*Nset, nset=_PickedSet55, internal, instance=roller-1
 1891,
*Nset, nset=_PickedSet56, internal, instance=plate3-1
 146,
*Elset, elset=_DCB_, internal, instance=DCB-1, generate
     1,  37120,      1
*Surface, type=ELEMENT, name=DCB
_DCB_, 
*Elset, elset=_DCB_bottom_SPOS, internal, instance=DCB-1, generate
 15361,  37120,      1
*Surface, type=ELEMENT, name=DCB_bottom
_DCB_bottom_SPOS, SPOS
*Elset, elset=_DCB_top_SPOS, internal, instance=DCB-1, generate
     1,  15360,      1
*Elset, elset=_DCB_top_SNEG, internal, instance=DCB-1, generate
 30721,  37120,      1
*Surface, type=ELEMENT, name=DCB_top
_DCB_top_SPOS, SPOS
_DCB_top_SNEG, SNEG
*Elset, elset=_plate1_bottom_SPOS, internal, instance=plate1-1, generate
   1,  420,    1
*Surface, type=ELEMENT, name=plate1_bottom
_plate1_bottom_SPOS, SPOS
*Elset, elset=_plate2_top_SNEG, internal, instance=plate2-1, generate
   1,  420,    1
*Surface, type=ELEMENT, name=plate2_top
_plate2_top_SNEG, SNEG
*Elset, elset=_plate3_bottom_SPOS, internal, instance=plate3-1, generate
   1,  112,    1
*Surface, type=ELEMENT, name=plate3_bottom
_plate3_bottom_SPOS, SPOS
*Elset, elset=_roller_SPOS, internal, instance=roller-1, generate
    1,  1764,     1
*Surface, type=ELEMENT, name=roller
_roller_SPOS, SPOS
*Elset, elset=_shaft_SPOS, internal, instance=shaft-1, generate
    1,  1078,     1
*Elset, elset=_shaft_SPOS, internal, instance=shaft-1-rad-2, generate
    1,  1078,     1
*Elset, elset=_shaft_SPOS, internal, instance=shaft-1-rad-3, generate
    1,  1078,     1
*Elset, elset=_shaft_SPOS, internal, instance=shaft-1-rad-5, generate
    1,  1078,     1
*Elset, elset=_shaft_SPOS, internal, instance=shaft-1-rad-9, generate
    1,  1078,     1
*Elset, elset=_shaft_SPOS, internal, instance=shaft-1-rad-7, generate
    1,  1078,     1
*Elset, elset=_shaft_SPOS, internal, instance=shaft-1-rad-11, generate
    1,  1078,     1
*Elset, elset=_shaft_SPOS, internal, instance=shaft-1-rad-4, generate
    1,  1078,     1
*Elset, elset=_shaft_SPOS, internal, instance=shaft-1-rad-6, generate
    1,  1078,     1
*Elset, elset=_shaft_SPOS, internal, instance=shaft-1-rad-10, generate
    1,  1078,     1
*Elset, elset=_shaft_SPOS, internal, instance=shaft-1-rad-8, generate
    1,  1078,     1
*Elset, elset=_shaft_SPOS, internal, instance=shaft-1-rad-12, generate
    1,  1078,     1
*Surface, type=ELEMENT, name=shaft
_shaft_SPOS, SPOS
*Rigid Body, ref node=roller-1.roller-RefPt_, elset=roller-1.roller
*Rigid Body, ref node=plate3-1.plate3-RefPt_, elset=plate3-1.plate3
*Rigid Body, ref node=plate1-1.plate1-RefPt_, elset=plate1-1.plate1
*Rigid Body, ref node=plate2-1.plate2-RefPt_, elset=plate2-1.plate2
*Rigid Body, ref node=shaft-1.shaft-RefPt_, elset=shaft-1.shaft
*Rigid Body, ref node=shaft-1-rad-2.shaft-RefPt_, elset=shaft-1-rad-2.shaft
*Rigid Body, ref node=shaft-1-rad-3.shaft-RefPt_, elset=shaft-1-rad-3.shaft
*Rigid Body, ref node=shaft-1-rad-4.shaft-RefPt_, elset=shaft-1-rad-4.shaft
*Rigid Body, ref node=shaft-1-rad-5.shaft-RefPt_, elset=shaft-1-rad-5.shaft
*Rigid Body, ref node=shaft-1-rad-6.shaft-RefPt_, elset=shaft-1-rad-6.shaft
*Rigid Body, ref node=shaft-1-rad-7.shaft-RefPt_, elset=shaft-1-rad-7.shaft
*Rigid Body, ref node=shaft-1-rad-8.shaft-RefPt_, elset=shaft-1-rad-8.shaft
*Rigid Body, ref node=shaft-1-rad-9.shaft-RefPt_, elset=shaft-1-rad-9.shaft
*Rigid Body, ref node=shaft-1-rad-10.shaft-RefPt_, elset=shaft-1-rad-10.shaft
*Rigid Body, ref node=shaft-1-rad-11.shaft-RefPt_, elset=shaft-1-rad-11.shaft
*Rigid Body, ref node=shaft-1-rad-12.shaft-RefPt_, elset=shaft-1-rad-12.shaft
*End Assembly
*Amplitude, name=Amp-1, definition=SMOOTH STEP
             0.,              0.,             0.4,              1.
*Amplitude, name=Amp-2, definition=SMOOTH STEP
             0.,              0.,              8.,              1.
** 
** MATERIALS
** 
*Material, name=Material-1
*Density
 1.4316e-09,
*Elastic, type=LAMINA
137518.,  4434.5,  0.3202,  1783.4,  1783.4,  1635.4,     50.
137566., 4868.88,  0.3202,   1958.,   1958.,   1796.,     55.
137614.,   5302.,  0.3202,   2132.,   2132.,  1955.6,     60.
137662.,   5733.,  0.3202,   2305.,   2305.,   2115.,     65.
137711.,   6162.,  0.3202,   2478.,   2478.,   2274.,     70.
137759.,  6590.4,  0.3202,  2649.5,  2649.5,  2431.7,     75.
137807.,   7017.,  0.3202,   2821.,   2821.,   2589.,     80.
137885.,   7442.,  0.3202,   2991.,   2991.,   2746.,     85.
137903.,   7865.,  0.3202,   3161.,   3161.,   2903.,     90.
137951.,   8287.,  0.3202,   3330.,   3330.,   3059.,     95.
137999.,  8707.3,  0.3202,  3499.1,  3499.1,  3214.3,    100.
** 
** INTERACTION PROPERTIES
** 
*Surface Interaction, name=bond
*Friction, rough
*Surface Behavior, no separation, pressure-overclosure=HARD
*Surface Interaction, name=firc
*Friction
 0.1,
*Surface Behavior, pressure-overclosure=HARD
*Surface Interaction, name=fric-small
*Friction
 0.01,
*Surface Behavior, pressure-overclosure=HARD
** 
** BOUNDARY CONDITIONS
** 
** Name: DCB Type: Displacement/Rotation
*Boundary
_PickedSet51, 2, 2
_PickedSet51, 3, 3
** Name: plate1 Type: Displacement/Rotation
*Boundary
_PickedSet52, 1, 1
_PickedSet52, 2, 2
_PickedSet52, 3, 3
_PickedSet52, 4, 4
_PickedSet52, 5, 5
_PickedSet52, 6, 6
** Name: plate2 Type: Displacement/Rotation
*Boundary
_PickedSet53, 1, 1
_PickedSet53, 2, 2
_PickedSet53, 3, 3
_PickedSet53, 4, 4
_PickedSet53, 5, 5
_PickedSet53, 6, 6
** Name: plate3 Type: Displacement/Rotation
*Boundary
_PickedSet56, 1, 1
_PickedSet56, 2, 2
_PickedSet56, 3, 3
_PickedSet56, 4, 4
_PickedSet56, 5, 5
_PickedSet56, 6, 6
** Name: roller Type: Displacement/Rotation
*Boundary
_PickedSet55, 1, 1
_PickedSet55, 2, 2
_PickedSet55, 3, 3
_PickedSet55, 4, 4
_PickedSet55, 5, 5
_PickedSet55, 6, 6
** Name: shaft Type: Displacement/Rotation
*Boundary
Set-7, 1, 1
Set-7, 2, 2
Set-7, 3, 3
Set-7, 4, 4
Set-7, 5, 5
Set-7, 6, 6
** 
** PREDEFINED FIELDS
** 
** Name: Predefined Field-1   Type: Temperature
*Initial Conditions, type=TEMPERATURE
Set-8, 100.
** 
** INTERACTIONS
** 
** Interaction: Int-1
*Contact, op=NEW
*Contact Inclusions
DCB , 
DCB_top , plate1_bottom
DCB_bottom , plate2_top
*Contact Property Assignment
 ,  , firc
** ----------------------------------------------------------------
** 
** STEP: Step-1
** 
*Step, name=Step-1, nlgeom=YES
*Dynamic, Explicit
, 0.4
*Bulk Viscosity
0.06, 1.2
** Mass Scaling: Semi-Automatic
**               Whole Model
*Variable Mass Scaling, dt=1e-06, type=below min, frequency=1
** 
** BOUNDARY CONDITIONS
** 
** Name: plate1 Type: Displacement/Rotation
*Boundary, amplitude=Amp-1
_PickedSet52, 1, 1
_PickedSet52, 2, 2, -8.65
_PickedSet52, 3, 3
_PickedSet52, 4, 4
_PickedSet52, 5, 5
_PickedSet52, 6, 6
** Name: plate2 Type: Displacement/Rotation
*Boundary, amplitude=Amp-1
_PickedSet53, 1, 1
_PickedSet53, 2, 2, 8.65
_PickedSet53, 3, 3
_PickedSet53, 4, 4
_PickedSet53, 5, 5
_PickedSet53, 6, 6
** 
** OUTPUT REQUESTS
** 
*Restart, write, overlay, number interval=1, time marks=YES
** 
** FIELD OUTPUT: F-Output-1
** 
*Output, field, variable=PRESELECT, time interval=0.01
** 
** HISTORY OUTPUT: H-Output-1
** 
*Output, history, variable=PRESELECT, time interval=0.01
*End Step
** ----------------------------------------------------------------
** 
** STEP: Step-2
** 
*Step, name=Step-2, nlgeom=YES
*Dynamic, Explicit
, 0.4
*Bulk Viscosity
0.06, 1.2
** Mass Scaling: Semi-Automatic
**               Whole Model
*Variable Mass Scaling, dt=1e-06, type=below min, frequency=1
** 
** INTERACTIONS
** 
** Interaction: Int-1
*Contact, op=NEW
*Contact Inclusions
DCB , 
DCB_top , plate3_bottom
DCB_top , shaft
DCB_bottom , roller
*Contact Property Assignment
 ,  , fric-small
DCB_top , plate3_bottom , bond
** 
** OUTPUT REQUESTS
** 
*Restart, write, overlay, number interval=1, time marks=YES
** 
** FIELD OUTPUT: F-Output-1
** 
*Output, field, variable=PRESELECT, time interval=0.01
** 
** HISTORY OUTPUT: H-Output-1
** 
*Output, history, variable=PRESELECT, time interval=0.01
*End Step
** ----------------------------------------------------------------
** 
** STEP: Step-3
** 
*Step, name=Step-3, nlgeom=YES
*Dynamic, Explicit
, 8.
*Bulk Viscosity
0.06, 1.2
** Mass Scaling: Semi-Automatic
**               Whole Model
*Variable Mass Scaling, dt=1e-06, type=below min, frequency=1
** 
** BOUNDARY CONDITIONS
** 
** Name: plate3 Type: Displacement/Rotation
*Boundary, amplitude=Amp-2
_PickedSet56, 1, 1
_PickedSet56, 2, 2
_PickedSet56, 3, 3
_PickedSet56, 4, 4
_PickedSet56, 5, 5
_PickedSet56, 6, 6, 9.42
** Name: roller Type: Displacement/Rotation
*Boundary, amplitude=Amp-2
_PickedSet55, 1, 1
_PickedSet55, 2, 2
_PickedSet55, 3, 3
_PickedSet55, 4, 4
_PickedSet55, 5, 5
_PickedSet55, 6, 6, 9.42
** 
** OUTPUT REQUESTS
** 
*Restart, write, overlay, number interval=1, time marks=YES
** 
** FIELD OUTPUT: F-Output-1
** 
*Output, field, variable=PRESELECT, time interval=0.01
** 
** HISTORY OUTPUT: H-Output-1
** 
*Output, history, variable=PRESELECT, time interval=0.01
*End Step
